22

C   -0.186  -1.490  -0.181
O   -0.926  -2.447  -0.497
N    0.008  -1.112   0.725
H    0.533  -0.396   1.184
C   -0.502  -1.632   1.410
H   -0.216  -2.590   1.371
H   -0.309  -1.255   2.315
H   -1.480  -1.560   1.212
C   -0.096   2.144  -0.669
H    0.871   2.385  -0.588
H   -0.565   2.318   0.197
H   -0.520   2.679  -1.400
C   -0.172   1.172  -0.892
O   -1.139   0.931  -0.973
N    0.746   0.780  -0.955
H    1.713   1.021  -0.873
C    0.634  -0.654  -1.283
H    0.099  -0.774  -2.218
C    2.063  -1.223  -1.276
H    2.670  -0.716  -2.057
H    2.556  -1.051  -0.295
H    2.070  -2.314  -1.490
