22

H   2.000   1.000  -0.000
C   2.000   2.090   0.000
H   1.486   2.454   0.890
H   1.486   2.454  -0.890
C   3.427   2.641  -0.000
O   4.391   1.877  -0.000
N   3.555   3.970  -0.000
H   2.733   4.556  -0.000
C   4.853   4.614  -0.000
H   5.408   4.316   0.890
C   5.661   4.221  -1.232
H   5.123   4.521  -2.131
H   6.630   4.719  -1.206
H   5.809   3.141  -1.241
C   4.713   6.129   0.000
O   3.601   6.653   0.000
N   5.846   6.835   0.000
H   6.737   6.359  -0.000
C   5.846   8.284   0.000
H   4.819   8.648   0.000
H   6.360   8.648   0.890
H   6.360   8.648  -0.890
