     178
# CELL: 12.03 0. 0. 0. 12.03 0. 0. 0. 12.03
 O  0.000000000  0.000000000  3.006070000
 H -0.798960000  0.029370000  3.532410000
 H -0.029350000  0.799450000  2.480470000
 O  0.000000000  0.000000000  9.023930000
 H  0.798960000 -0.029370000  8.497590000
 H  0.029350000 -0.799450000  9.549530000
 O  0.000000000  2.320780000  1.422000000
 H -0.785650000  2.803920000  1.678060000
 H -0.014180000  2.329500000  0.464940000
 O  0.000000000  2.320780000  10.608000000
 H -0.001610000  1.530770000  10.067530000
 H -0.782150000  2.800130000  10.334680000
 O  0.000000000  9.709220000  1.422000000
 H  0.001610000  10.499230000  1.962470000
 H  0.782150000  9.229870000  1.695320000
 O  0.000000000  9.709220000  10.608000000
 H  0.785650000  9.226080000  10.351940000
 H  0.014180000  9.700500000  11.565060000
 O  6.015000000  3.006070000  0.000000000
 H  5.216040000  3.532410000 -0.029370000
 H  5.985650000  2.480470000 -0.799450000
 O  6.015000000  9.023930000  0.000000000
 H  6.813960000  8.497590000  0.029370000
 H  6.044350000  9.549530000  0.799450000
 O  6.015000000  1.422000000  2.320780000
 H  6.013390000  1.962470000  1.530770000
 H  5.232850000  1.695320000  2.800130000
 O  6.015000000  10.608000000  2.320780000
 H  5.229350000  10.351940000  2.803920000
 H  6.000820000  11.565060000  2.329500000
 O  6.015000000  1.422000000  9.709220000
 H  6.800650000  1.678060000  9.226080000
 H  6.029180000  0.464940000  9.700500000
 O  6.015000000  10.608000000  9.709220000
 H  6.016610000  10.067530000  10.499230000
 H  6.797150000  10.334680000  9.229870000
 O  3.694680000  4.592850000  0.000000000
 H  3.676670000  5.549480000  0.027800000
 H  3.195730000  4.320940000  0.770290000
 O  3.694680000  7.437150000  0.000000000
 H  4.485440000  7.976520000  0.001670000
 H  3.199690000  7.739310000 -0.761520000
 O  2.320320000  0.000000000  4.592850000
 H  1.529560000  0.001670000  4.053480000
 H  2.815310000 -0.761520000  4.290690000
 O  2.320320000  0.000000000  7.437150000
 H  2.338330000  0.027800000  6.480520000
 H  2.819270000  0.770290000  7.709060000
 O  2.263370000  3.712650000  2.209700000
 H  2.781500000  3.124690000  2.759310000
 H  1.496880000  3.195840000  1.961460000
 O  2.263370000  3.712650000  9.820300000
 H  2.720980000  3.994060000  10.612530000
 H  1.495350000  3.240350000  10.141730000
 O  2.263370000  8.317350000  2.209700000
 H  2.752580000  7.986450000  1.456430000
 H  1.995450000  7.531420000  2.685900000
 O  2.263370000  8.317350000  9.820300000
 H  2.807370000  8.844390000  9.235040000
 H  2.003560000  7.562760000  9.291780000
 O  3.751630000  2.209700000  3.712650000
 H  3.262430000  1.456440000  4.043580000
 H  4.019460000  2.685990000  4.498550000
 O  3.751630000  9.820300000  3.712650000
 H  4.011410000  9.291720000  4.467200000
 H  3.207620000  9.235100000  3.185560000
 O  3.751630000  2.209700000  8.317350000
 H  4.518120000  1.961460000  8.834160000
 H  3.233500000  2.759310000  8.905310000
 O  3.751630000  9.820300000  8.317350000
 H  3.294020000  10.612530000  8.035940000
 H  4.519650000  10.141730000  8.789650000
 O  8.335320000  4.592850000  0.000000000
 H  7.544560000  4.053480000 -0.001670000
 H  8.830310000  4.290690000  0.761520000
 O  8.335320000  7.437150000  0.000000000
 H  8.353330000  6.480520000 -0.027800000
 H  8.834270000  7.709060000 -0.770290000
 O  9.709680000  0.000000000  4.592850000
 H  9.691670000 -0.027800000  5.549480000
 H  9.210730000 -0.770290000  4.320940000
 O  9.709680000  0.000000000  7.437150000
 H  10.500440000 -0.001670000  7.976520000
 H  9.214690000  0.761520000  7.739310000
 O  9.766630000  3.712650000  2.209700000
 H  9.222630000  3.185610000  2.794960000
 H  10.026440000  4.467240000  2.738220000
 O  9.766630000  3.712650000  9.820300000
 H  9.277420000  4.043550000  10.573570000
 H  10.034550000  4.498580000  9.344100000
 O  9.766630000  8.317350000  2.209700000
 H  9.309020000  8.035940000  1.417470000
 H  10.534650000  8.789650000  1.888270000
 O  9.766630000  8.317350000  9.820300000
 H  9.248500000  8.905310000  9.270690000
 H  10.533120000  8.834160000  10.068540000
 O  8.278370000  2.209700000  3.712650000
 H  8.735980000  1.417470000  3.994060000
 H  7.510350000  1.888270000  3.240350000
 O  8.278370000  9.820300000  3.712650000
 H  7.511880000  10.068540000  3.195840000
 H  8.796500000  9.270690000  3.124690000
 O  8.278370000  2.209700000  8.317350000
 H  8.018590000  2.738280000  7.562800000
 H  8.822380000  2.794900000  8.844440000
 O  8.278370000  9.820300000  8.317350000
 H  8.767570000  10.573560000  7.986420000
 H  8.010540000  9.344010000  7.531450000
 O  3.006070000  6.015000000  6.015000000
 H  3.532410000  6.813960000  5.985630000
 H  2.480470000  6.044350000  5.215550000
 O  9.023930000  6.015000000  6.015000000
 H  8.497590000  5.216040000  6.044370000
 H  9.549530000  5.985650000  6.814450000
 O  1.422000000  6.015000000  8.335780000
 H  1.706850000  5.244740000  8.827510000
 H  1.964250000  6.010210000  7.547000000
 O  10.608000000  6.015000000  8.335780000
 H  10.347430000  6.789090000  8.834900000
 H  11.564960000  6.032920000  8.347340000
 O  1.422000000  6.015000000  3.694220000
 H  1.682570000  5.240910000  3.195100000
 H  0.465040000  5.997080000  3.682660000
 O  10.608000000  6.015000000  3.694220000
 H  10.323150000  6.785260000  3.202490000
 H  10.065750000  6.019790000  4.483000000
 O  4.592850000  3.694680000  6.015000000
 H  4.049970000  4.483030000  6.019650000
 H  4.308180000  3.202710000  6.785170000
 O  7.437150000  3.694680000  6.015000000
 H  6.480190000  3.683140000  5.997110000
 H  7.697690000  3.195450000  5.240970000
 O  4.592850000  8.335320000  6.015000000
 H  5.549810000  8.346860000  6.032890000
 H  4.332310000  8.834550000  6.789030000
 O  7.437150000  8.335320000  6.015000000
 H  7.980030000  7.546970000  6.010350000
 H  7.721820000  8.827290000  5.244830000
 C  0.000007508  6.015016161 -0.000007739
 H -0.259230434  5.401057836  0.863465302
 H -0.681078273  5.791866434 -0.822212618
 H  1.023970099  5.797346944 -0.306595565
 H -0.083679890  7.069658372  0.265415865
 C  6.015007508  0.000016161  6.014992261
 H  5.755769566 -0.613942164  6.878465302
 H  5.333921727 -0.223133566  5.192787382
 H  7.038970099 -0.217653056  5.708404435
 H  5.931320110  1.054658372  6.280415865
 C  3.008007508  0.000016161 -0.000007739
 H  2.748769566 -0.613942164  0.863465302
 H  2.326921727 -0.223133566 -0.822212618
 H  4.031970099 -0.217653056 -0.306595565
 H  2.924320110  1.054658372  0.265415865
 C  9.023007508  0.000016161 -0.000007739
 H  8.763769566 -0.613942164  0.863465302
 H  8.341921727 -0.223133566 -0.822212618
 H  10.046970099 -0.217653056 -0.306595565
 H  8.939320110  1.054658372  0.265415865
 C  0.000007508  2.992016161  6.014992261
 H -0.259230434  2.378057836  6.878465302
 H -0.681078273  2.768866434  5.192787382
 H  1.023970099  2.774346944  5.708404435
 H -0.083679890  4.046658372  6.280415865
 C  0.000007508  9.038016161  6.014992261
 H -0.259230434  8.424057836  6.878465302
 H -0.681078273  8.814866434  5.192787382
 H  1.023970099  8.820346944  5.708404435
 H -0.083679890  10.092658372  6.280415865
 C  6.015007508  6.015016161  2.991992261
 H  5.755769566  5.401057836  3.855465302
 H  5.333921727  5.791866434  2.169787382
 H  7.038970099  5.797346944  2.685404435
 H  5.931320110  7.069658372  3.257415865
 C  6.015007508  6.015016161  9.037992261
 H  5.755769566  5.401057836  9.901465302
 H  5.333921727  5.791866434  8.215787382
 H  7.038970099  5.797346944  8.731404435
 H  5.931320110  7.069658372  9.303415865
