7
Properties=species:S:1:pos:R:3
O	1.041371715	-0.216863172	0.001603252
C	-0.098316254	0.512294574	-0.01021628
C	-1.225162144	-0.248210652	0.020868361
H	-0.087363805	1.596485281	-0.07557041
H	0.61765221	-1.094559605	-0.02702971
H	-2.216985293	0.211688229	-0.00469380
H	-1.115257687	-1.357478425	-0.04507284
